<?xml version="1.0" encoding="UTF-8"?>

<!-- generated on 2025-09-04 12:10:15 by Eclipse SUMO netgenerate Version 1.20.0
<configuration xmlns:xsi="http://www.w3.org/2001/XMLSchema-instance" xsi:noNamespaceSchemaLocation="http://sumo.dlr.de/xsd/netgenerateConfiguration.xsd">

    <grid_network>
        <grid value="true"/>
        <grid.number value="3"/>
        <grid.length value="100"/>
        <grid.attach-length value="100"/>
    </grid_network>

    <output>
        <output-file value="grid-3x3-turns.net.xml"/>
    </output>

    <building_defaults>
        <default.lanenumber value="3"/>
        <default-junction-type value="traffic_light"/>
    </building_defaults>

    <junctions>
        <no-turnarounds value="true"/>
    </junctions>

</configuration>
-->

<net version="1.20" junctionCornerDetail="5" limitTurnSpeed="5.50" xmlns:xsi="http://www.w3.org/2001/XMLSchema-instance" xsi:noNamespaceSchemaLocation="http://sumo.dlr.de/xsd/net_file.xsd">

    <location netOffset="0.00,0.00" convBoundary="0.00,0.00,400.00,400.00" origBoundary="0.00,0.00,400.00,400.00" projParameter="!"/>

    <edge id=":A0_0" function="internal">
        <lane id=":A0_0_0" index="0" speed="6.51" length="9.03" shape="92.00,113.60 91.65,111.15 90.60,109.40 88.85,108.35 86.40,108.00"/>
    </edge>
    <edge id=":A0_1" function="internal">
        <lane id=":A0_1_0" index="0" speed="13.89" length="27.20" shape="92.00,113.60 92.00,86.40"/>
        <lane id=":A0_1_1" index="1" speed="13.89" length="27.20" shape="95.20,113.60 95.20,86.40"/>
        <lane id=":A0_1_2" index="2" speed="13.89" length="27.20" shape="98.40,113.60 98.40,86.40"/>
    </edge>
    <edge id=":A0_4" function="internal">
        <lane id=":A0_4_0" index="0" speed="10.36" length="5.01" shape="98.40,113.60 99.11,108.64"/>
    </edge>
    <edge id=":A0_20" function="internal">
        <lane id=":A0_20_0" index="0" speed="10.36" length="19.50" shape="99.11,108.64 99.35,106.95 102.20,102.20 106.95,99.35 113.60,98.40"/>
    </edge>
    <edge id=":A0_5" function="internal">
        <lane id=":A0_5_0" index="0" speed="6.51" length="9.03" shape="113.60,108.00 111.15,108.35 109.40,109.40 108.35,111.15 108.00,113.60"/>
    </edge>
    <edge id=":A0_6" function="internal">
        <lane id=":A0_6_0" index="0" speed="13.89" length="27.20" shape="113.60,108.00 86.40,108.00"/>
        <lane id=":A0_6_1" index="1" speed="13.89" length="27.20" shape="113.60,104.80 86.40,104.80"/>
        <lane id=":A0_6_2" index="2" speed="13.89" length="27.20" shape="113.60,101.60 86.40,101.60"/>
    </edge>
    <edge id=":A0_9" function="internal">
        <lane id=":A0_9_0" index="0" speed="10.36" length="5.01" shape="113.60,101.60 108.64,100.89"/>
    </edge>
    <edge id=":A0_21" function="internal">
        <lane id=":A0_21_0" index="0" speed="10.36" length="19.50" shape="108.64,100.89 106.95,100.65 102.20,97.80 99.35,93.05 98.40,86.40"/>
    </edge>
    <edge id=":A0_10" function="internal">
        <lane id=":A0_10_0" index="0" speed="6.51" length="9.03" shape="108.00,86.40 108.35,88.85 109.40,90.60 111.15,91.65 113.60,92.00"/>
    </edge>
    <edge id=":A0_11" function="internal">
        <lane id=":A0_11_0" index="0" speed="13.89" length="27.20" shape="108.00,86.40 108.00,113.60"/>
        <lane id=":A0_11_1" index="1" speed="13.89" length="27.20" shape="104.80,86.40 104.80,113.60"/>
        <lane id=":A0_11_2" index="2" speed="13.89" length="27.20" shape="101.60,86.40 101.60,113.60"/>
    </edge>
    <edge id=":A0_14" function="internal">
        <lane id=":A0_14_0" index="0" speed="10.36" length="5.01" shape="101.60,86.40 100.89,91.36"/>
    </edge>
    <edge id=":A0_22" function="internal">
        <lane id=":A0_22_0" index="0" speed="10.36" length="19.50" shape="100.89,91.36 100.65,93.05 97.80,97.80 93.05,100.65 86.40,101.60"/>
    </edge>
    <edge id=":A0_15" function="internal">
        <lane id=":A0_15_0" index="0" speed="6.51" length="9.03" shape="86.40,92.00 88.85,91.65 90.60,90.60 91.65,88.85 92.00,86.40"/>
    </edge>
    <edge id=":A0_16" function="internal">
        <lane id=":A0_16_0" index="0" speed="13.89" length="27.20" shape="86.40,92.00 113.60,92.00"/>
        <lane id=":A0_16_1" index="1" speed="13.89" length="27.20" shape="86.40,95.20 113.60,95.20"/>
        <lane id=":A0_16_2" index="2" speed="13.89" length="27.20" shape="86.40,98.40 113.60,98.40"/>
    </edge>
    <edge id=":A0_19" function="internal">
        <lane id=":A0_19_0" index="0" speed="10.36" length="5.01" shape="86.40,98.40 91.36,99.11"/>
    </edge>
    <edge id=":A0_23" function="internal">
        <lane id=":A0_23_0" index="0" speed="10.36" length="19.50" shape="91.36,99.11 93.05,99.35 97.80,102.20 100.65,106.95 101.60,113.60"/>
    </edge>
    <edge id=":A1_0" function="internal">
        <lane id=":A1_0_0" index="0" speed="6.51" length="9.03" shape="92.00,213.60 91.65,211.15 90.60,209.40 88.85,208.35 86.40,208.00"/>
    </edge>
    <edge id=":A1_1" function="internal">
        <lane id=":A1_1_0" index="0" speed="13.89" length="27.20" shape="92.00,213.60 92.00,186.40"/>
        <lane id=":A1_1_1" index="1" speed="13.89" length="27.20" shape="95.20,213.60 95.20,186.40"/>
        <lane id=":A1_1_2" index="2" speed="13.89" length="27.20" shape="98.40,213.60 98.40,186.40"/>
    </edge>
    <edge id=":A1_4" function="internal">
        <lane id=":A1_4_0" index="0" speed="10.36" length="5.01" shape="98.40,213.60 99.11,208.64"/>
    </edge>
    <edge id=":A1_20" function="internal">
        <lane id=":A1_20_0" index="0" speed="10.36" length="19.50" shape="99.11,208.64 99.35,206.95 102.20,202.20 106.95,199.35 113.60,198.40"/>
    </edge>
    <edge id=":A1_5" function="internal">
        <lane id=":A1_5_0" index="0" speed="6.51" length="9.03" shape="113.60,208.00 111.15,208.35 109.40,209.40 108.35,211.15 108.00,213.60"/>
    </edge>
    <edge id=":A1_6" function="internal">
        <lane id=":A1_6_0" index="0" speed="13.89" length="27.20" shape="113.60,208.00 86.40,208.00"/>
        <lane id=":A1_6_1" index="1" speed="13.89" length="27.20" shape="113.60,204.80 86.40,204.80"/>
        <lane id=":A1_6_2" index="2" speed="13.89" length="27.20" shape="113.60,201.60 86.40,201.60"/>
    </edge>
    <edge id=":A1_9" function="internal">
        <lane id=":A1_9_0" index="0" speed="10.36" length="5.01" shape="113.60,201.60 108.64,200.89"/>
    </edge>
    <edge id=":A1_21" function="internal">
        <lane id=":A1_21_0" index="0" speed="10.36" length="19.50" shape="108.64,200.89 106.95,200.65 102.20,197.80 99.35,193.05 98.40,186.40"/>
    </edge>
    <edge id=":A1_10" function="internal">
        <lane id=":A1_10_0" index="0" speed="6.51" length="9.03" shape="108.00,186.40 108.35,188.85 109.40,190.60 111.15,191.65 113.60,192.00"/>
    </edge>
    <edge id=":A1_11" function="internal">
        <lane id=":A1_11_0" index="0" speed="13.89" length="27.20" shape="108.00,186.40 108.00,213.60"/>
        <lane id=":A1_11_1" index="1" speed="13.89" length="27.20" shape="104.80,186.40 104.80,213.60"/>
        <lane id=":A1_11_2" index="2" speed="13.89" length="27.20" shape="101.60,186.40 101.60,213.60"/>
    </edge>
    <edge id=":A1_14" function="internal">
        <lane id=":A1_14_0" index="0" speed="10.36" length="5.01" shape="101.60,186.40 100.89,191.36"/>
    </edge>
    <edge id=":A1_22" function="internal">
        <lane id=":A1_22_0" index="0" speed="10.36" length="19.50" shape="100.89,191.36 100.65,193.05 97.80,197.80 93.05,200.65 86.40,201.60"/>
    </edge>
    <edge id=":A1_15" function="internal">
        <lane id=":A1_15_0" index="0" speed="6.51" length="9.03" shape="86.40,192.00 88.85,191.65 90.60,190.60 91.65,188.85 92.00,186.40"/>
    </edge>
    <edge id=":A1_16" function="internal">
        <lane id=":A1_16_0" index="0" speed="13.89" length="27.20" shape="86.40,192.00 113.60,192.00"/>
        <lane id=":A1_16_1" index="1" speed="13.89" length="27.20" shape="86.40,195.20 113.60,195.20"/>
        <lane id=":A1_16_2" index="2" speed="13.89" length="27.20" shape="86.40,198.40 113.60,198.40"/>
    </edge>
    <edge id=":A1_19" function="internal">
        <lane id=":A1_19_0" index="0" speed="10.36" length="5.01" shape="86.40,198.40 91.36,199.11"/>
    </edge>
    <edge id=":A1_23" function="internal">
        <lane id=":A1_23_0" index="0" speed="10.36" length="19.50" shape="91.36,199.11 93.05,199.35 97.80,202.20 100.65,206.95 101.60,213.60"/>
    </edge>
    <edge id=":A2_0" function="internal">
        <lane id=":A2_0_0" index="0" speed="6.51" length="9.03" shape="92.00,313.60 91.65,311.15 90.60,309.40 88.85,308.35 86.40,308.00"/>
    </edge>
    <edge id=":A2_1" function="internal">
        <lane id=":A2_1_0" index="0" speed="13.89" length="27.20" shape="92.00,313.60 92.00,286.40"/>
        <lane id=":A2_1_1" index="1" speed="13.89" length="27.20" shape="95.20,313.60 95.20,286.40"/>
        <lane id=":A2_1_2" index="2" speed="13.89" length="27.20" shape="98.40,313.60 98.40,286.40"/>
    </edge>
    <edge id=":A2_4" function="internal">
        <lane id=":A2_4_0" index="0" speed="10.36" length="5.01" shape="98.40,313.60 99.11,308.64"/>
    </edge>
    <edge id=":A2_20" function="internal">
        <lane id=":A2_20_0" index="0" speed="10.36" length="19.50" shape="99.11,308.64 99.35,306.95 102.20,302.20 106.95,299.35 113.60,298.40"/>
    </edge>
    <edge id=":A2_5" function="internal">
        <lane id=":A2_5_0" index="0" speed="6.51" length="9.03" shape="113.60,308.00 111.15,308.35 109.40,309.40 108.35,311.15 108.00,313.60"/>
    </edge>
    <edge id=":A2_6" function="internal">
        <lane id=":A2_6_0" index="0" speed="13.89" length="27.20" shape="113.60,308.00 86.40,308.00"/>
        <lane id=":A2_6_1" index="1" speed="13.89" length="27.20" shape="113.60,304.80 86.40,304.80"/>
        <lane id=":A2_6_2" index="2" speed="13.89" length="27.20" shape="113.60,301.60 86.40,301.60"/>
    </edge>
    <edge id=":A2_9" function="internal">
        <lane id=":A2_9_0" index="0" speed="10.36" length="5.01" shape="113.60,301.60 108.64,300.89"/>
    </edge>
    <edge id=":A2_21" function="internal">
        <lane id=":A2_21_0" index="0" speed="10.36" length="19.50" shape="108.64,300.89 106.95,300.65 102.20,297.80 99.35,293.05 98.40,286.40"/>
    </edge>
    <edge id=":A2_10" function="internal">
        <lane id=":A2_10_0" index="0" speed="6.51" length="9.03" shape="108.00,286.40 108.35,288.85 109.40,290.60 111.15,291.65 113.60,292.00"/>
    </edge>
    <edge id=":A2_11" function="internal">
        <lane id=":A2_11_0" index="0" speed="13.89" length="27.20" shape="108.00,286.40 108.00,313.60"/>
        <lane id=":A2_11_1" index="1" speed="13.89" length="27.20" shape="104.80,286.40 104.80,313.60"/>
        <lane id=":A2_11_2" index="2" speed="13.89" length="27.20" shape="101.60,286.40 101.60,313.60"/>
    </edge>
    <edge id=":A2_14" function="internal">
        <lane id=":A2_14_0" index="0" speed="10.36" length="5.01" shape="101.60,286.40 100.89,291.36"/>
    </edge>
    <edge id=":A2_22" function="internal">
        <lane id=":A2_22_0" index="0" speed="10.36" length="19.50" shape="100.89,291.36 100.65,293.05 97.80,297.80 93.05,300.65 86.40,301.60"/>
    </edge>
    <edge id=":A2_15" function="internal">
        <lane id=":A2_15_0" index="0" speed="6.51" length="9.03" shape="86.40,292.00 88.85,291.65 90.60,290.60 91.65,288.85 92.00,286.40"/>
    </edge>
    <edge id=":A2_16" function="internal">
        <lane id=":A2_16_0" index="0" speed="13.89" length="27.20" shape="86.40,292.00 113.60,292.00"/>
        <lane id=":A2_16_1" index="1" speed="13.89" length="27.20" shape="86.40,295.20 113.60,295.20"/>
        <lane id=":A2_16_2" index="2" speed="13.89" length="27.20" shape="86.40,298.40 113.60,298.40"/>
    </edge>
    <edge id=":A2_19" function="internal">
        <lane id=":A2_19_0" index="0" speed="10.36" length="5.01" shape="86.40,298.40 91.36,299.11"/>
    </edge>
    <edge id=":A2_23" function="internal">
        <lane id=":A2_23_0" index="0" speed="10.36" length="19.50" shape="91.36,299.11 93.05,299.35 97.80,302.20 100.65,306.95 101.60,313.60"/>
    </edge>
    <edge id=":B0_0" function="internal">
        <lane id=":B0_0_0" index="0" speed="6.51" length="9.03" shape="192.00,113.60 191.65,111.15 190.60,109.40 188.85,108.35 186.40,108.00"/>
    </edge>
    <edge id=":B0_1" function="internal">
        <lane id=":B0_1_0" index="0" speed="13.89" length="27.20" shape="192.00,113.60 192.00,86.40"/>
        <lane id=":B0_1_1" index="1" speed="13.89" length="27.20" shape="195.20,113.60 195.20,86.40"/>
        <lane id=":B0_1_2" index="2" speed="13.89" length="27.20" shape="198.40,113.60 198.40,86.40"/>
    </edge>
    <edge id=":B0_4" function="internal">
        <lane id=":B0_4_0" index="0" speed="10.36" length="5.01" shape="198.40,113.60 199.11,108.64"/>
    </edge>
    <edge id=":B0_20" function="internal">
        <lane id=":B0_20_0" index="0" speed="10.36" length="19.50" shape="199.11,108.64 199.35,106.95 202.20,102.20 206.95,99.35 213.60,98.40"/>
    </edge>
    <edge id=":B0_5" function="internal">
        <lane id=":B0_5_0" index="0" speed="6.51" length="9.03" shape="213.60,108.00 211.15,108.35 209.40,109.40 208.35,111.15 208.00,113.60"/>
    </edge>
    <edge id=":B0_6" function="internal">
        <lane id=":B0_6_0" index="0" speed="13.89" length="27.20" shape="213.60,108.00 186.40,108.00"/>
        <lane id=":B0_6_1" index="1" speed="13.89" length="27.20" shape="213.60,104.80 186.40,104.80"/>
        <lane id=":B0_6_2" index="2" speed="13.89" length="27.20" shape="213.60,101.60 186.40,101.60"/>
    </edge>
    <edge id=":B0_9" function="internal">
        <lane id=":B0_9_0" index="0" speed="10.36" length="5.01" shape="213.60,101.60 208.64,100.89"/>
    </edge>
    <edge id=":B0_21" function="internal">
        <lane id=":B0_21_0" index="0" speed="10.36" length="19.50" shape="208.64,100.89 206.95,100.65 202.20,97.80 199.35,93.05 198.40,86.40"/>
    </edge>
    <edge id=":B0_10" function="internal">
        <lane id=":B0_10_0" index="0" speed="6.51" length="9.03" shape="208.00,86.40 208.35,88.85 209.40,90.60 211.15,91.65 213.60,92.00"/>
    </edge>
    <edge id=":B0_11" function="internal">
        <lane id=":B0_11_0" index="0" speed="13.89" length="27.20" shape="208.00,86.40 208.00,113.60"/>
        <lane id=":B0_11_1" index="1" speed="13.89" length="27.20" shape="204.80,86.40 204.80,113.60"/>
        <lane id=":B0_11_2" index="2" speed="13.89" length="27.20" shape="201.60,86.40 201.60,113.60"/>
    </edge>
    <edge id=":B0_14" function="internal">
        <lane id=":B0_14_0" index="0" speed="10.36" length="5.01" shape="201.60,86.40 200.89,91.36"/>
    </edge>
    <edge id=":B0_22" function="internal">
        <lane id=":B0_22_0" index="0" speed="10.36" length="19.50" shape="200.89,91.36 200.65,93.05 197.80,97.80 193.05,100.65 186.40,101.60"/>
    </edge>
    <edge id=":B0_15" function="internal">
        <lane id=":B0_15_0" index="0" speed="6.51" length="9.03" shape="186.40,92.00 188.85,91.65 190.60,90.60 191.65,88.85 192.00,86.40"/>
    </edge>
    <edge id=":B0_16" function="internal">
        <lane id=":B0_16_0" index="0" speed="13.89" length="27.20" shape="186.40,92.00 213.60,92.00"/>
        <lane id=":B0_16_1" index="1" speed="13.89" length="27.20" shape="186.40,95.20 213.60,95.20"/>
        <lane id=":B0_16_2" index="2" speed="13.89" length="27.20" shape="186.40,98.40 213.60,98.40"/>
    </edge>
    <edge id=":B0_19" function="internal">
        <lane id=":B0_19_0" index="0" speed="10.36" length="5.01" shape="186.40,98.40 191.36,99.11"/>
    </edge>
    <edge id=":B0_23" function="internal">
        <lane id=":B0_23_0" index="0" speed="10.36" length="19.50" shape="191.36,99.11 193.05,99.35 197.80,102.20 200.65,106.95 201.60,113.60"/>
    </edge>
    <edge id=":B1_0" function="internal">
        <lane id=":B1_0_0" index="0" speed="6.51" length="9.03" shape="192.00,213.60 191.65,211.15 190.60,209.40 188.85,208.35 186.40,208.00"/>
    </edge>
    <edge id=":B1_1" function="internal">
        <lane id=":B1_1_0" index="0" speed="13.89" length="27.20" shape="192.00,213.60 192.00,186.40"/>
        <lane id=":B1_1_1" index="1" speed="13.89" length="27.20" shape="195.20,213.60 195.20,186.40"/>
        <lane id=":B1_1_2" index="2" speed="13.89" length="27.20" shape="198.40,213.60 198.40,186.40"/>
    </edge>
    <edge id=":B1_4" function="internal">
        <lane id=":B1_4_0" index="0" speed="10.36" length="5.01" shape="198.40,213.60 199.11,208.64"/>
    </edge>
    <edge id=":B1_20" function="internal">
        <lane id=":B1_20_0" index="0" speed="10.36" length="19.50" shape="199.11,208.64 199.35,206.95 202.20,202.20 206.95,199.35 213.60,198.40"/>
    </edge>
    <edge id=":B1_5" function="internal">
        <lane id=":B1_5_0" index="0" speed="6.51" length="9.03" shape="213.60,208.00 211.15,208.35 209.40,209.40 208.35,211.15 208.00,213.60"/>
    </edge>
    <edge id=":B1_6" function="internal">
        <lane id=":B1_6_0" index="0" speed="13.89" length="27.20" shape="213.60,208.00 186.40,208.00"/>
        <lane id=":B1_6_1" index="1" speed="13.89" length="27.20" shape="213.60,204.80 186.40,204.80"/>
        <lane id=":B1_6_2" index="2" speed="13.89" length="27.20" shape="213.60,201.60 186.40,201.60"/>
    </edge>
    <edge id=":B1_9" function="internal">
        <lane id=":B1_9_0" index="0" speed="10.36" length="5.01" shape="213.60,201.60 208.64,200.89"/>
    </edge>
    <edge id=":B1_21" function="internal">
        <lane id=":B1_21_0" index="0" speed="10.36" length="19.50" shape="208.64,200.89 206.95,200.65 202.20,197.80 199.35,193.05 198.40,186.40"/>
    </edge>
    <edge id=":B1_10" function="internal">
        <lane id=":B1_10_0" index="0" speed="6.51" length="9.03" shape="208.00,186.40 208.35,188.85 209.40,190.60 211.15,191.65 213.60,192.00"/>
    </edge>
    <edge id=":B1_11" function="internal">
        <lane id=":B1_11_0" index="0" speed="13.89" length="27.20" shape="208.00,186.40 208.00,213.60"/>
        <lane id=":B1_11_1" index="1" speed="13.89" length="27.20" shape="204.80,186.40 204.80,213.60"/>
        <lane id=":B1_11_2" index="2" speed="13.89" length="27.20" shape="201.60,186.40 201.60,213.60"/>
    </edge>
    <edge id=":B1_14" function="internal">
        <lane id=":B1_14_0" index="0" speed="10.36" length="5.01" shape="201.60,186.40 200.89,191.36"/>
    </edge>
    <edge id=":B1_22" function="internal">
        <lane id=":B1_22_0" index="0" speed="10.36" length="19.50" shape="200.89,191.36 200.65,193.05 197.80,197.80 193.05,200.65 186.40,201.60"/>
    </edge>
    <edge id=":B1_15" function="internal">
        <lane id=":B1_15_0" index="0" speed="6.51" length="9.03" shape="186.40,192.00 188.85,191.65 190.60,190.60 191.65,188.85 192.00,186.40"/>
    </edge>
    <edge id=":B1_16" function="internal">
        <lane id=":B1_16_0" index="0" speed="13.89" length="27.20" shape="186.40,192.00 213.60,192.00"/>
        <lane id=":B1_16_1" index="1" speed="13.89" length="27.20" shape="186.40,195.20 213.60,195.20"/>
        <lane id=":B1_16_2" index="2" speed="13.89" length="27.20" shape="186.40,198.40 213.60,198.40"/>
    </edge>
    <edge id=":B1_19" function="internal">
        <lane id=":B1_19_0" index="0" speed="10.36" length="5.01" shape="186.40,198.40 191.36,199.11"/>
    </edge>
    <edge id=":B1_23" function="internal">
        <lane id=":B1_23_0" index="0" speed="10.36" length="19.50" shape="191.36,199.11 193.05,199.35 197.80,202.20 200.65,206.95 201.60,213.60"/>
    </edge>
    <edge id=":B2_0" function="internal">
        <lane id=":B2_0_0" index="0" speed="6.51" length="9.03" shape="192.00,313.60 191.65,311.15 190.60,309.40 188.85,308.35 186.40,308.00"/>
    </edge>
    <edge id=":B2_1" function="internal">
        <lane id=":B2_1_0" index="0" speed="13.89" length="27.20" shape="192.00,313.60 192.00,286.40"/>
        <lane id=":B2_1_1" index="1" speed="13.89" length="27.20" shape="195.20,313.60 195.20,286.40"/>
        <lane id=":B2_1_2" index="2" speed="13.89" length="27.20" shape="198.40,313.60 198.40,286.40"/>
    </edge>
    <edge id=":B2_4" function="internal">
        <lane id=":B2_4_0" index="0" speed="10.36" length="5.01" shape="198.40,313.60 199.11,308.64"/>
    </edge>
    <edge id=":B2_20" function="internal">
        <lane id=":B2_20_0" index="0" speed="10.36" length="19.50" shape="199.11,308.64 199.35,306.95 202.20,302.20 206.95,299.35 213.60,298.40"/>
    </edge>
    <edge id=":B2_5" function="internal">
        <lane id=":B2_5_0" index="0" speed="6.51" length="9.03" shape="213.60,308.00 211.15,308.35 209.40,309.40 208.35,311.15 208.00,313.60"/>
    </edge>
    <edge id=":B2_6" function="internal">
        <lane id=":B2_6_0" index="0" speed="13.89" length="27.20" shape="213.60,308.00 186.40,308.00"/>
        <lane id=":B2_6_1" index="1" speed="13.89" length="27.20" shape="213.60,304.80 186.40,304.80"/>
        <lane id=":B2_6_2" index="2" speed="13.89" length="27.20" shape="213.60,301.60 186.40,301.60"/>
    </edge>
    <edge id=":B2_9" function="internal">
        <lane id=":B2_9_0" index="0" speed="10.36" length="5.01" shape="213.60,301.60 208.64,300.89"/>
    </edge>
    <edge id=":B2_21" function="internal">
        <lane id=":B2_21_0" index="0" speed="10.36" length="19.50" shape="208.64,300.89 206.95,300.65 202.20,297.80 199.35,293.05 198.40,286.40"/>
    </edge>
    <edge id=":B2_10" function="internal">
        <lane id=":B2_10_0" index="0" speed="6.51" length="9.03" shape="208.00,286.40 208.35,288.85 209.40,290.60 211.15,291.65 213.60,292.00"/>
    </edge>
    <edge id=":B2_11" function="internal">
        <lane id=":B2_11_0" index="0" speed="13.89" length="27.20" shape="208.00,286.40 208.00,313.60"/>
        <lane id=":B2_11_1" index="1" speed="13.89" length="27.20" shape="204.80,286.40 204.80,313.60"/>
        <lane id=":B2_11_2" index="2" speed="13.89" length="27.20" shape="201.60,286.40 201.60,313.60"/>
    </edge>
    <edge id=":B2_14" function="internal">
        <lane id=":B2_14_0" index="0" speed="10.36" length="5.01" shape="201.60,286.40 200.89,291.36"/>
    </edge>
    <edge id=":B2_22" function="internal">
        <lane id=":B2_22_0" index="0" speed="10.36" length="19.50" shape="200.89,291.36 200.65,293.05 197.80,297.80 193.05,300.65 186.40,301.60"/>
    </edge>
    <edge id=":B2_15" function="internal">
        <lane id=":B2_15_0" index="0" speed="6.51" length="9.03" shape="186.40,292.00 188.85,291.65 190.60,290.60 191.65,288.85 192.00,286.40"/>
    </edge>
    <edge id=":B2_16" function="internal">
        <lane id=":B2_16_0" index="0" speed="13.89" length="27.20" shape="186.40,292.00 213.60,292.00"/>
        <lane id=":B2_16_1" index="1" speed="13.89" length="27.20" shape="186.40,295.20 213.60,295.20"/>
        <lane id=":B2_16_2" index="2" speed="13.89" length="27.20" shape="186.40,298.40 213.60,298.40"/>
    </edge>
    <edge id=":B2_19" function="internal">
        <lane id=":B2_19_0" index="0" speed="10.36" length="5.01" shape="186.40,298.40 191.36,299.11"/>
    </edge>
    <edge id=":B2_23" function="internal">
        <lane id=":B2_23_0" index="0" speed="10.36" length="19.50" shape="191.36,299.11 193.05,299.35 197.80,302.20 200.65,306.95 201.60,313.60"/>
    </edge>
    <edge id=":C0_0" function="internal">
        <lane id=":C0_0_0" index="0" speed="6.51" length="9.03" shape="292.00,113.60 291.65,111.15 290.60,109.40 288.85,108.35 286.40,108.00"/>
    </edge>
    <edge id=":C0_1" function="internal">
        <lane id=":C0_1_0" index="0" speed="13.89" length="27.20" shape="292.00,113.60 292.00,86.40"/>
        <lane id=":C0_1_1" index="1" speed="13.89" length="27.20" shape="295.20,113.60 295.20,86.40"/>
        <lane id=":C0_1_2" index="2" speed="13.89" length="27.20" shape="298.40,113.60 298.40,86.40"/>
    </edge>
    <edge id=":C0_4" function="internal">
        <lane id=":C0_4_0" index="0" speed="10.36" length="5.01" shape="298.40,113.60 299.11,108.64"/>
    </edge>
    <edge id=":C0_20" function="internal">
        <lane id=":C0_20_0" index="0" speed="10.36" length="19.50" shape="299.11,108.64 299.35,106.95 302.20,102.20 306.95,99.35 313.60,98.40"/>
    </edge>
    <edge id=":C0_5" function="internal">
        <lane id=":C0_5_0" index="0" speed="6.51" length="9.03" shape="313.60,108.00 311.15,108.35 309.40,109.40 308.35,111.15 308.00,113.60"/>
    </edge>
    <edge id=":C0_6" function="internal">
        <lane id=":C0_6_0" index="0" speed="13.89" length="27.20" shape="313.60,108.00 286.40,108.00"/>
        <lane id=":C0_6_1" index="1" speed="13.89" length="27.20" shape="313.60,104.80 286.40,104.80"/>
        <lane id=":C0_6_2" index="2" speed="13.89" length="27.20" shape="313.60,101.60 286.40,101.60"/>
    </edge>
    <edge id=":C0_9" function="internal">
        <lane id=":C0_9_0" index="0" speed="10.36" length="5.01" shape="313.60,101.60 308.64,100.89"/>
    </edge>
    <edge id=":C0_21" function="internal">
        <lane id=":C0_21_0" index="0" speed="10.36" length="19.50" shape="308.64,100.89 306.95,100.65 302.20,97.80 299.35,93.05 298.40,86.40"/>
    </edge>
    <edge id=":C0_10" function="internal">
        <lane id=":C0_10_0" index="0" speed="6.51" length="9.03" shape="308.00,86.40 308.35,88.85 309.40,90.60 311.15,91.65 313.60,92.00"/>
    </edge>
    <edge id=":C0_11" function="internal">
        <lane id=":C0_11_0" index="0" speed="13.89" length="27.20" shape="308.00,86.40 308.00,113.60"/>
        <lane id=":C0_11_1" index="1" speed="13.89" length="27.20" shape="304.80,86.40 304.80,113.60"/>
        <lane id=":C0_11_2" index="2" speed="13.89" length="27.20" shape="301.60,86.40 301.60,113.60"/>
    </edge>
    <edge id=":C0_14" function="internal">
        <lane id=":C0_14_0" index="0" speed="10.36" length="5.01" shape="301.60,86.40 300.89,91.36"/>
    </edge>
    <edge id=":C0_22" function="internal">
        <lane id=":C0_22_0" index="0" speed="10.36" length="19.50" shape="300.89,91.36 300.65,93.05 297.80,97.80 293.05,100.65 286.40,101.60"/>
    </edge>
    <edge id=":C0_15" function="internal">
        <lane id=":C0_15_0" index="0" speed="6.51" length="9.03" shape="286.40,92.00 288.85,91.65 290.60,90.60 291.65,88.85 292.00,86.40"/>
    </edge>
    <edge id=":C0_16" function="internal">
        <lane id=":C0_16_0" index="0" speed="13.89" length="27.20" shape="286.40,92.00 313.60,92.00"/>
        <lane id=":C0_16_1" index="1" speed="13.89" length="27.20" shape="286.40,95.20 313.60,95.20"/>
        <lane id=":C0_16_2" index="2" speed="13.89" length="27.20" shape="286.40,98.40 313.60,98.40"/>
    </edge>
    <edge id=":C0_19" function="internal">
        <lane id=":C0_19_0" index="0" speed="10.36" length="5.01" shape="286.40,98.40 291.36,99.11"/>
    </edge>
    <edge id=":C0_23" function="internal">
        <lane id=":C0_23_0" index="0" speed="10.36" length="19.50" shape="291.36,99.11 293.05,99.35 297.80,102.20 300.65,106.95 301.60,113.60"/>
    </edge>
    <edge id=":C1_0" function="internal">
        <lane id=":C1_0_0" index="0" speed="6.51" length="9.03" shape="292.00,213.60 291.65,211.15 290.60,209.40 288.85,208.35 286.40,208.00"/>
    </edge>
    <edge id=":C1_1" function="internal">
        <lane id=":C1_1_0" index="0" speed="13.89" length="27.20" shape="292.00,213.60 292.00,186.40"/>
        <lane id=":C1_1_1" index="1" speed="13.89" length="27.20" shape="295.20,213.60 295.20,186.40"/>
        <lane id=":C1_1_2" index="2" speed="13.89" length="27.20" shape="298.40,213.60 298.40,186.40"/>
    </edge>
    <edge id=":C1_4" function="internal">
        <lane id=":C1_4_0" index="0" speed="10.36" length="5.01" shape="298.40,213.60 299.11,208.64"/>
    </edge>
    <edge id=":C1_20" function="internal">
        <lane id=":C1_20_0" index="0" speed="10.36" length="19.50" shape="299.11,208.64 299.35,206.95 302.20,202.20 306.95,199.35 313.60,198.40"/>
    </edge>
    <edge id=":C1_5" function="internal">
        <lane id=":C1_5_0" index="0" speed="6.51" length="9.03" shape="313.60,208.00 311.15,208.35 309.40,209.40 308.35,211.15 308.00,213.60"/>
    </edge>
    <edge id=":C1_6" function="internal">
        <lane id=":C1_6_0" index="0" speed="13.89" length="27.20" shape="313.60,208.00 286.40,208.00"/>
        <lane id=":C1_6_1" index="1" speed="13.89" length="27.20" shape="313.60,204.80 286.40,204.80"/>
        <lane id=":C1_6_2" index="2" speed="13.89" length="27.20" shape="313.60,201.60 286.40,201.60"/>
    </edge>
    <edge id=":C1_9" function="internal">
        <lane id=":C1_9_0" index="0" speed="10.36" length="5.01" shape="313.60,201.60 308.64,200.89"/>
    </edge>
    <edge id=":C1_21" function="internal">
        <lane id=":C1_21_0" index="0" speed="10.36" length="19.50" shape="308.64,200.89 306.95,200.65 302.20,197.80 299.35,193.05 298.40,186.40"/>
    </edge>
    <edge id=":C1_10" function="internal">
        <lane id=":C1_10_0" index="0" speed="6.51" length="9.03" shape="308.00,186.40 308.35,188.85 309.40,190.60 311.15,191.65 313.60,192.00"/>
    </edge>
    <edge id=":C1_11" function="internal">
        <lane id=":C1_11_0" index="0" speed="13.89" length="27.20" shape="308.00,186.40 308.00,213.60"/>
        <lane id=":C1_11_1" index="1" speed="13.89" length="27.20" shape="304.80,186.40 304.80,213.60"/>
        <lane id=":C1_11_2" index="2" speed="13.89" length="27.20" shape="301.60,186.40 301.60,213.60"/>
    </edge>
    <edge id=":C1_14" function="internal">
        <lane id=":C1_14_0" index="0" speed="10.36" length="5.01" shape="301.60,186.40 300.89,191.36"/>
    </edge>
    <edge id=":C1_22" function="internal">
        <lane id=":C1_22_0" index="0" speed="10.36" length="19.50" shape="300.89,191.36 300.65,193.05 297.80,197.80 293.05,200.65 286.40,201.60"/>
    </edge>
    <edge id=":C1_15" function="internal">
        <lane id=":C1_15_0" index="0" speed="6.51" length="9.03" shape="286.40,192.00 288.85,191.65 290.60,190.60 291.65,188.85 292.00,186.40"/>
    </edge>
    <edge id=":C1_16" function="internal">
        <lane id=":C1_16_0" index="0" speed="13.89" length="27.20" shape="286.40,192.00 313.60,192.00"/>